Version 4
SHEET 1 880 2540
WIRE -1296 -240 -1296 -320
WIRE -1152 -240 -1152 -320
WIRE -1008 -240 -1008 -304
WIRE -864 -240 -864 -304
WIRE -736 -240 -736 -304
WIRE -592 -240 -592 -304
WIRE -496 -240 -496 -304
WIRE -1008 -128 -1008 -160
WIRE -864 -128 -864 -160
WIRE -736 -128 -736 -160
WIRE -592 -128 -592 -160
WIRE -496 -128 -496 -160
WIRE -1296 -96 -1296 -160
WIRE -1152 -96 -1152 -160
WIRE -208 48 -208 16
WIRE -1248 64 -1248 32
WIRE -240 64 -304 64
WIRE -1280 80 -1344 80
WIRE -48 80 -176 80
WIRE -16 80 -48 80
WIRE -1088 96 -1216 96
WIRE -1056 96 -1088 96
WIRE -240 96 -304 96
WIRE -1280 112 -1344 112
WIRE -720 112 -752 112
WIRE -656 112 -720 112
WIRE -480 112 -576 112
WIRE -304 112 -304 96
WIRE -304 112 -480 112
WIRE -1696 128 -1792 128
WIRE -1520 128 -1616 128
WIRE -1344 128 -1344 112
WIRE -1344 128 -1520 128
WIRE -208 128 -208 112
WIRE -1248 144 -1248 128
WIRE -752 144 -752 112
WIRE -1792 160 -1792 128
WIRE -336 224 -336 208
WIRE -1376 240 -1376 224
WIRE -752 256 -752 224
WIRE -1792 272 -1792 240
WIRE -480 304 -480 112
WIRE -432 304 -480 304
WIRE -144 304 -240 304
WIRE -16 304 -16 80
WIRE -16 304 -64 304
WIRE -1520 320 -1520 128
WIRE -1472 320 -1520 320
WIRE -1184 320 -1280 320
WIRE -1056 320 -1056 96
WIRE -1056 320 -1104 320
WIRE -400 512 -400 480
WIRE -1440 528 -1440 496
WIRE -336 640 -336 624
WIRE -1376 656 -1376 640
WIRE -480 720 -480 304
WIRE -432 720 -480 720
WIRE -160 720 -240 720
WIRE -16 720 -16 304
WIRE -16 720 -80 720
WIRE -1520 736 -1520 320
WIRE -1472 736 -1520 736
WIRE -1200 736 -1280 736
WIRE -1056 736 -1056 320
WIRE -1056 736 -1120 736
WIRE -400 928 -400 896
WIRE -1440 944 -1440 912
WIRE -480 1152 -480 720
WIRE -432 1152 -480 1152
WIRE -144 1152 -240 1152
WIRE -16 1152 -16 720
WIRE -16 1152 -64 1152
WIRE -1520 1168 -1520 736
WIRE -1472 1168 -1520 1168
WIRE -1184 1168 -1280 1168
WIRE -1056 1168 -1056 736
WIRE -1056 1168 -1104 1168
WIRE -480 1536 -480 1152
WIRE -432 1536 -480 1536
WIRE -144 1536 -240 1536
WIRE -16 1536 -16 1152
WIRE -16 1536 -64 1536
WIRE -1520 1552 -1520 1168
WIRE -1472 1552 -1520 1552
WIRE -1184 1552 -1280 1552
WIRE -1056 1552 -1056 1168
WIRE -1056 1552 -1104 1552
WIRE -480 1936 -480 1536
WIRE -432 1936 -480 1936
WIRE -144 1936 -240 1936
WIRE -16 1936 -16 1536
WIRE -16 1936 -64 1936
WIRE -1520 1952 -1520 1552
WIRE -1472 1952 -1520 1952
WIRE -1184 1952 -1280 1952
WIRE -1056 1952 -1056 1552
WIRE -1056 1952 -1104 1952
FLAG -1152 -96 0
FLAG -1152 -320 VDD
FLAG -752 256 0
FLAG -1008 -128 0
FLAG -1008 -304 S1
FLAG -864 -128 0
FLAG -864 -304 S2
FLAG -736 -128 0
FLAG -736 -304 S3
FLAG -592 -128 0
FLAG -592 -304 S4
FLAG -48 80 out_castigmin
FLAG -720 112 in
FLAG -208 128 VDD
FLAG -208 16 VSS
FLAG -1296 -96 0
FLAG -1296 -320 VSS
FLAG -432 784 S2
FLAG -272 896 0
FLAG -336 624 VDD
FLAG -400 928 VSS
FLAG -432 368 S1
FLAG -272 480 0
FLAG -336 208 VDD
FLAG -400 512 VSS
FLAG -272 1712 0
FLAG -272 1328 0
FLAG -272 2112 0
FLAG -400 1328 VSS
FLAG -400 1712 VSS
FLAG -400 2112 VSS
FLAG -336 1856 VDD
FLAG -336 1456 VDD
FLAG -336 1072 VDD
FLAG -304 64 0
FLAG -496 -128 0
FLAG -496 -304 S5
FLAG -432 1216 S3
FLAG -432 1600 S4
FLAG -432 2000 S5
FLAG -480 720 nod2
FLAG -480 1152 nod3
FLAG -480 1536 nod4
FLAG -480 304 nod1
FLAG -1792 272 0
FLAG -1088 96 out_castigmax
FLAG -1248 144 VDD
FLAG -1248 32 VSS
FLAG -1472 800 S2
FLAG -1312 912 0
FLAG -1376 640 VDD
FLAG -1440 944 VSS
FLAG -1472 384 S5
FLAG -1312 496 0
FLAG -1376 224 VDD
FLAG -1440 528 VSS
FLAG -1312 1728 0
FLAG -1312 1344 0
FLAG -1312 2128 0
FLAG -1440 1344 VSS
FLAG -1440 1728 VSS
FLAG -1440 2128 VSS
FLAG -1376 1872 VDD
FLAG -1376 1472 VDD
FLAG -1376 1088 VDD
FLAG -1344 80 0
FLAG -1472 1232 S3
FLAG -1472 1616 S4
FLAG -1472 2016 S1
DATAFLAG -400 112 ""
DATAFLAG -1440 128 ""
SYMBOL voltage -1152 -256 R0
WINDOW 123 0 0 Left 2
WINDOW 39 0 0 Left 2
SYMATTR InstName V2
SYMATTR Value 15
SYMBOL res -560 96 R90
WINDOW 0 0 56 VBottom 2
WINDOW 3 32 56 VTop 2
SYMATTR InstName R1
SYMATTR Value 5k
SYMBOL res -48 288 R90
WINDOW 0 0 56 VBottom 2
WINDOW 3 32 56 VTop 2
SYMATTR InstName R2
SYMATTR Value 20K
SYMBOL voltage -1008 -256 R0
WINDOW 123 0 0 Left 2
WINDOW 39 0 0 Left 2
SYMATTR InstName V4
SYMATTR Value 15
SYMBOL voltage -864 -256 R0
WINDOW 123 0 0 Left 2
WINDOW 39 0 0 Left 2
SYMATTR InstName V5
SYMATTR Value 0
SYMBOL voltage -736 -256 R0
WINDOW 123 0 0 Left 2
WINDOW 39 0 0 Left 2
SYMATTR InstName V6
SYMATTR Value 0
SYMBOL voltage -592 -256 R0
WINDOW 123 0 0 Left 2
WINDOW 39 0 0 Left 2
SYMATTR InstName V7
SYMATTR Value 0
SYMBOL voltage -752 128 R0
WINDOW 123 24 124 Left 2
WINDOW 39 0 0 Left 2
WINDOW 3 24 44 Left 2
SYMATTR Value2 AC 1
SYMATTR Value SINE(0 31.4m 14.1k)
SYMATTR InstName Vin
SYMBOL voltage -1296 -256 R0
WINDOW 123 0 0 Left 2
WINDOW 39 0 0 Left 2
SYMATTR InstName V3
SYMATTR Value -15
SYMBOL res -64 704 R90
WINDOW 0 0 56 VBottom 2
WINDOW 3 32 56 VTop 2
SYMATTR InstName R3
SYMATTR Value 25K
SYMBOL Switches\\ADG5412 -336 768 R0
SYMATTR InstName U1
SYMBOL Switches\\ADG5412 -336 352 R0
SYMATTR InstName U3
SYMBOL Switches\\ADG5412 -336 1200 R0
SYMATTR InstName U4
SYMBOL Switches\\ADG5412 -336 1584 R0
SYMATTR InstName U5
SYMBOL Switches\\ADG5412 -336 1984 R0
SYMATTR InstName U6
SYMBOL res -48 1136 R90
WINDOW 0 0 56 VBottom 2
WINDOW 3 32 56 VTop 2
SYMATTR InstName R4
SYMATTR Value 31.5K
SYMBOL res -48 1520 R90
WINDOW 0 0 56 VBottom 2
WINDOW 3 32 56 VTop 2
SYMATTR InstName R5
SYMATTR Value 40K
SYMBOL res -48 1920 R90
WINDOW 0 0 56 VBottom 2
WINDOW 3 32 56 VTop 2
SYMATTR InstName R6
SYMATTR Value 50K
SYMBOL OpAmps\\ADA4627 -208 144 M180
SYMATTR InstName U2
SYMBOL voltage -496 -256 R0
WINDOW 123 0 0 Left 0
WINDOW 39 0 0 Left 0
SYMATTR InstName V1
SYMATTR Value 0
SYMBOL res -1600 112 R90
WINDOW 0 0 56 VBottom 2
WINDOW 3 32 56 VTop 2
SYMATTR InstName R25
SYMATTR Value 5k
SYMBOL res -1088 304 R90
WINDOW 0 0 56 VBottom 2
WINDOW 3 32 56 VTop 2
SYMATTR InstName R26
SYMATTR Value 20K
SYMBOL voltage -1792 144 R0
WINDOW 123 24 124 Left 2
WINDOW 39 0 0 Left 2
WINDOW 3 24 44 Left 2
SYMATTR Value2 AC 1
SYMATTR Value SINE(0 12.5m 14.1k)
SYMATTR InstName Vin4
SYMBOL res -1104 720 R90
WINDOW 0 0 56 VBottom 2
WINDOW 3 32 56 VTop 2
SYMATTR InstName R27
SYMATTR Value 25K
SYMBOL Switches\\ADG5412 -1376 784 R0
SYMATTR InstName U25
SYMBOL Switches\\ADG5412 -1376 368 R0
SYMATTR InstName U26
SYMBOL Switches\\ADG5412 -1376 1216 R0
SYMATTR InstName U27
SYMBOL Switches\\ADG5412 -1376 1600 R0
SYMATTR InstName U28
SYMBOL Switches\\ADG5412 -1376 2000 R0
SYMATTR InstName U29
SYMBOL res -1088 1152 R90
WINDOW 0 0 56 VBottom 2
WINDOW 3 32 56 VTop 2
SYMATTR InstName R28
SYMATTR Value 31.5K
SYMBOL res -1088 1536 R90
WINDOW 0 0 56 VBottom 2
WINDOW 3 32 56 VTop 2
SYMATTR InstName R29
SYMATTR Value 40K
SYMBOL res -1088 1936 R90
WINDOW 0 0 56 VBottom 2
WINDOW 3 32 56 VTop 2
SYMATTR InstName R30
SYMATTR Value 50K
SYMBOL OpAmps\\ADA4627 -1248 160 M180
SYMATTR InstName U30
TEXT -440 -256 Left 2 !;ac dec 100 1 10Meg
TEXT -440 -216 Left 2 !.op
TEXT 32 -488 Left 2 !.tran 0 10m 0 100n
TEXT 24 -456 Left 2 !.FOUR 14.1khz 10 V(OUT)
TEXT 24 -424 Left 2 !.OPTIONS plotwinsize=0
TEXT 32 -392 Left 2 ;To disable compression
TEXT 32 -360 Left 2 !.OPTIONS numdgt=7
TEXT 32 -328 Left 2 ;To switch to double precision math\non dependent variables
TEXT -432 -184 Left 2 !;dc Vin 0 1.8 1m
TEXT -448 -504 Left 2 !.meas AC Rin FIND Rintrare() AT 1
TEXT -448 -472 Left 2 !.func Rintrare() V(in)/I(Vin)
TEXT -448 -432 Left 2 !.FOUR 14.1khz 10 V(OUT)
TEXT -448 -400 Left 2 !.OPTIONS plotwinsize=0
TEXT -440 -368 Left 2 ;To disable compression
TEXT -440 -336 Left 2 !.OPTIONS numdgt=7
