Version 4
SHEET 1 1224 680
WIRE -288 -320 -288 -416
WIRE -400 -304 -528 -304
WIRE -336 -304 -400 -304
WIRE -336 -256 -368 -256
WIRE -288 -208 -288 -240
WIRE -128 -208 -288 -208
WIRE 512 -192 448 -192
WIRE -528 -176 -528 -304
WIRE -288 -160 -288 -208
WIRE 720 -160 624 -160
WIRE -400 -144 -400 -304
WIRE -336 -144 -400 -144
WIRE -368 -96 -368 -256
WIRE -336 -96 -368 -96
WIRE -368 -64 -368 -96
WIRE 944 -48 832 -48
WIRE -528 -16 -528 -96
WIRE -288 0 -288 -80
WIRE 240 304 240 224
WIRE 384 304 384 224
WIRE 528 304 528 240
WIRE 672 304 672 240
WIRE 800 304 800 240
WIRE 944 304 944 240
WIRE 1040 304 1040 240
WIRE 528 416 528 384
WIRE 672 416 672 384
WIRE 800 416 800 384
WIRE 944 416 944 384
WIRE 1040 416 1040 384
WIRE 240 448 240 384
WIRE 384 448 384 384
FLAG -528 -16 0
FLAG -368 -64 0
FLAG -128 -128 0
FLAG 384 448 0
FLAG 384 224 v+
FLAG 528 416 0
FLAG 528 240 S1
FLAG 672 416 0
FLAG 672 240 S2
FLAG 800 416 0
FLAG 800 240 S3
FLAG 944 416 0
FLAG 944 240 S4
FLAG 240 448 0
FLAG 240 224 v-
FLAG 1040 416 0
FLAG 1040 240 S5
FLAG 320 -176 v+
FLAG 320 -144 v-
FLAG 512 -160 v+
FLAG 512 -128 v-
FLAG 720 32 v+
FLAG 720 64 v-
FLAG 944 -16 v+
FLAG 944 16 v-
FLAG 720 -128 S1
FLAG 720 -96 S2
FLAG 720 -64 S3
FLAG 720 -32 S4
FLAG 720 0 S5
FLAG 1056 -16 out
FLAG -288 -416 in1
FLAG -288 0 in2
FLAG 320 -208 in2
FLAG 320 -240 in1
SYMBOL e -288 -336 R0
SYMATTR InstName E1
SYMATTR Value -0.5
SYMBOL e -288 -176 R0
SYMATTR InstName E2
SYMATTR Value -0.5
SYMBOL voltage -128 -224 R0
WINDOW 123 38 63 Left 2
WINDOW 39 0 0 Left 2
WINDOW 0 38 12 Left 2
WINDOW 3 -188 38 Left 2
SYMATTR Value2 AC 0
SYMATTR InstName Vicm1
SYMATTR Value ""
SYMBOL voltage 384 288 R0
WINDOW 123 0 0 Left 2
WINDOW 39 0 0 Left 2
SYMATTR InstName V2
SYMATTR Value 15
SYMBOL voltage 528 288 R0
WINDOW 123 0 0 Left 2
WINDOW 39 0 0 Left 2
SYMATTR InstName V3
SYMATTR Value 0
SYMBOL voltage 672 288 R0
WINDOW 123 0 0 Left 2
WINDOW 39 0 0 Left 2
SYMATTR InstName V4
SYMATTR Value 0
SYMBOL voltage 800 288 R0
WINDOW 123 0 0 Left 2
WINDOW 39 0 0 Left 2
SYMATTR InstName V5
SYMATTR Value 15
SYMBOL voltage 944 288 R0
WINDOW 123 0 0 Left 2
WINDOW 39 0 0 Left 2
SYMATTR InstName V6
SYMATTR Value 0
SYMBOL voltage 240 288 R0
WINDOW 123 0 0 Left 2
WINDOW 39 0 0 Left 2
SYMATTR InstName V7
SYMATTR Value -15
SYMBOL voltage 1040 288 R0
WINDOW 123 0 0 Left 0
WINDOW 39 0 0 Left 0
SYMATTR InstName V8
SYMATTR Value 0
SYMBOL Draft1 384 -192 R0
SYMATTR InstName X1
SYMBOL Draft2 560 -160 R0
SYMATTR InstName X5
SYMBOL Draft3 768 -48 R0
SYMATTR InstName X2
SYMBOL Draft4 992 -16 R0
SYMATTR InstName X3
SYMBOL voltage -528 -192 R0
WINDOW 123 24 124 Left 2
WINDOW 39 0 0 Left 2
WINDOW 3 24 44 Left 2
SYMATTR Value2 AC 1
SYMATTR Value SINE(0 12.5m 14.1K)
SYMATTR InstName V9
TEXT 360 -384 Left 2 !;dc V9 -15 15 0.01
TEXT 368 -440 Left 2 !;tran 1m
TEXT 360 -344 Left 2 !.ac dec 1m 100 1G
