Version 4
SHEET 1 880 1740
WIRE 528 -416 528 -448
WIRE 496 -400 432 -400
WIRE 720 -384 560 -384
WIRE 496 -368 432 -368
WIRE 80 -352 16 -352
WIRE 256 -352 160 -352
WIRE 432 -352 432 -368
WIRE 432 -352 256 -352
WIRE 528 -336 528 -352
WIRE 400 -240 400 -256
WIRE 256 -160 256 -352
WIRE 304 -160 256 -160
WIRE 592 -160 496 -160
WIRE 720 -160 720 -384
WIRE 720 -160 672 -160
WIRE 336 48 336 16
WIRE 400 176 400 160
WIRE 256 256 256 -160
WIRE 304 256 256 256
WIRE 576 256 496 256
WIRE 720 256 720 -160
WIRE 720 256 656 256
WIRE 336 464 336 432
WIRE 256 688 256 256
WIRE 304 688 256 688
WIRE 592 688 496 688
WIRE 720 688 720 256
WIRE 720 688 672 688
WIRE 256 1072 256 688
WIRE 304 1072 256 1072
WIRE 592 1072 496 1072
WIRE 720 1072 720 688
WIRE 720 1072 672 1072
WIRE 256 1472 256 1072
WIRE 304 1472 256 1472
WIRE 592 1472 496 1472
WIRE 720 1472 720 1072
WIRE 720 1472 672 1472
FLAG 464 432 0
FLAG 464 16 0
FLAG 464 1248 0
FLAG 464 864 0
FLAG 464 1648 0
FLAG 432 -400 0
FLAG 16 -352 in
IOPIN 16 -352 In
FLAG 720 -384 out
IOPIN 720 -384 Out
FLAG 400 -256 v+
IOPIN 400 -256 In
FLAG 336 48 v-
IOPIN 336 48 In
FLAG 336 464 v-
IOPIN 336 464 In
FLAG 400 160 v+
IOPIN 400 160 In
FLAG 400 608 v+
IOPIN 400 608 In
FLAG 336 864 v-
IOPIN 336 864 In
FLAG 400 992 v+
IOPIN 400 992 In
FLAG 400 1392 v+
IOPIN 400 1392 In
FLAG 336 1648 v-
IOPIN 336 1648 In
FLAG 336 1248 v-
IOPIN 336 1248 In
FLAG 528 -448 v-
IOPIN 528 -448 In
FLAG 528 -336 v+
IOPIN 528 -336 In
FLAG 304 -96 S1
IOPIN 304 -96 In
FLAG 304 320 S2
IOPIN 304 320 In
FLAG 304 752 S3
IOPIN 304 752 In
FLAG 304 1136 S4
IOPIN 304 1136 In
FLAG 304 1536 S5
IOPIN 304 1536 In
DATAFLAG 336 -352 ""
SYMBOL res 176 -368 R90
WINDOW 0 0 56 VBottom 2
WINDOW 3 32 56 VTop 2
SYMATTR InstName R1
SYMATTR Value 5k
SYMBOL res 688 -176 R90
WINDOW 0 0 56 VBottom 2
WINDOW 3 32 56 VTop 2
SYMATTR InstName R2
SYMATTR Value 20K
SYMBOL res 672 240 R90
WINDOW 0 0 56 VBottom 2
WINDOW 3 32 56 VTop 2
SYMATTR InstName R3
SYMATTR Value 25K
SYMBOL Switches\\ADG5412 400 304 R0
SYMATTR InstName U1
SYMBOL Switches\\ADG5412 400 -112 R0
SYMATTR InstName U2
SYMBOL Switches\\ADG5412 400 736 R0
SYMATTR InstName U3
SYMBOL Switches\\ADG5412 400 1120 R0
SYMATTR InstName U4
SYMBOL Switches\\ADG5412 400 1520 R0
SYMATTR InstName U5
SYMBOL res 688 672 R90
WINDOW 0 0 56 VBottom 2
WINDOW 3 32 56 VTop 2
SYMATTR InstName R4
SYMATTR Value 31.5K
SYMBOL res 688 1056 R90
WINDOW 0 0 56 VBottom 2
WINDOW 3 32 56 VTop 2
SYMATTR InstName R5
SYMATTR Value 40K
SYMBOL res 688 1456 R90
WINDOW 0 0 56 VBottom 2
WINDOW 3 32 56 VTop 2
SYMATTR InstName R6
SYMATTR Value 50K
SYMBOL OpAmps\\ADA4627 528 -320 M180
SYMATTR InstName U6
